<?xml version="1.0" encoding="UTF-8"?>

<!-- generated on 2022-05-23 14:15:24 by Eclipse SUMO netedit Version 1.10.0
<configuration xmlns:xsi="http://www.w3.org/2001/XMLSchema-instance" xsi:noNamespaceSchemaLocation="http://sumo.dlr.de/xsd/netconvertConfiguration.xsd">

    <input>
        <sumo-net-file value="C:\Users\za696465\Documents\Simulation_Car_following_CACC\SUMO_Experiment\Final%20setup\test_lanechange\I75_Final.net.xml"/>
    </input>

    <output>
        <output-file value="C:\Users\za696465\Documents\Simulation_Car_following_CACC\SUMO_Experiment\Final%20setup\test_lanechange\I75_Final.net.xml"/>
    </output>

    <processing>
        <geometry.min-radius.fix.railways value="false"/>
        <geometry.max-grade.fix value="false"/>
        <offset.disable-normalization value="true"/>
        <lefthand value="false"/>
    </processing>

    <junctions>
        <no-turnarounds value="true"/>
        <junctions.corner-detail value="5"/>
        <junctions.limit-turn-speed value="5.5"/>
        <rectangular-lane-cut value="false"/>
    </junctions>

    <pedestrian>
        <walkingareas value="false"/>
    </pedestrian>

    <report>
        <aggregate-warnings value="5"/>
    </report>

</configuration>
-->

<net version="1.9" junctionCornerDetail="5" limitTurnSpeed="5.50" xmlns:xsi="http://www.w3.org/2001/XMLSchema-instance" xsi:noNamespaceSchemaLocation="http://sumo.dlr.de/xsd/net_file.xsd">

    <location netOffset="-365251.06,-3263762.84" convBoundary="573.58,534.32,9042.60,13398.40" origBoundary="-82.393469,29.271241,-82.247152,29.644258" projParameter="+proj=utm +zone=17 +ellps=WGS84 +datum=WGS84 +units=m +no_defs"/>

    <type id="highway.bridleway" priority="1" numLanes="1" speed="2.78" allow="pedestrian" oneway="1" width="2.00"/>
    <type id="highway.bus_guideway" priority="1" numLanes="1" speed="27.78" allow="bus" oneway="1"/>
    <type id="highway.cycleway" priority="1" numLanes="1" speed="8.33" allow="bicycle" oneway="1" width="1.00"/>
    <type id="highway.footway" priority="1" numLanes="1" speed="2.78" allow="pedestrian" oneway="1" width="2.00"/>
    <type id="highway.ford" priority="1" numLanes="1" speed="2.78" allow="army" oneway="1"/>
    <type id="highway.living_street" priority="3" numLanes="1" speed="2.78" disallow="tram rail_urban rail rail_electric ship" oneway="1"/>
    <type id="highway.motorway" priority="13" numLanes="2" speed="44.44" allow="private emergency authority army vip passenger hov taxi bus coach delivery truck trailer motorcycle evehicle custom1 custom2" oneway="1"/>
    <type id="highway.motorway_link" priority="12" numLanes="1" speed="22.22" allow="private emergency authority army vip passenger hov taxi bus coach delivery truck trailer motorcycle evehicle custom1 custom2" oneway="1"/>
    <type id="highway.path" priority="1" numLanes="1" speed="2.78" allow="pedestrian bicycle" oneway="1" width="2.00"/>
    <type id="highway.pedestrian" priority="1" numLanes="1" speed="2.78" allow="pedestrian" oneway="1" width="2.00"/>
    <type id="highway.primary" priority="9" numLanes="2" speed="27.78" disallow="tram rail_urban rail rail_electric ship" oneway="1"/>
    <type id="highway.primary_link" priority="8" numLanes="1" speed="22.22" disallow="tram rail_urban rail rail_electric ship" oneway="1"/>
    <type id="highway.raceway" priority="14" numLanes="2" speed="83.33" allow="vip" oneway="1"/>
    <type id="highway.residential" priority="4" numLanes="1" speed="13.89" disallow="tram rail_urban rail rail_electric ship" oneway="1"/>
    <type id="highway.secondary" priority="7" numLanes="2" speed="27.78" disallow="tram rail_urban rail rail_electric ship" oneway="1"/>
    <type id="highway.secondary_link" priority="6" numLanes="1" speed="22.22" disallow="tram rail_urban rail rail_electric ship" oneway="1"/>
    <type id="highway.service" priority="2" numLanes="1" speed="5.56" allow="pedestrian delivery bicycle" oneway="1"/>
    <type id="highway.stairs" priority="1" numLanes="1" speed="1.39" allow="pedestrian" oneway="1" width="2.00"/>
    <type id="highway.step" priority="1" numLanes="1" speed="1.39" allow="pedestrian" oneway="1" width="2.00"/>
    <type id="highway.steps" priority="1" numLanes="1" speed="1.39" allow="pedestrian" oneway="1" width="2.00"/>
    <type id="highway.tertiary" priority="6" numLanes="1" speed="22.22" disallow="tram rail_urban rail rail_electric ship" oneway="1"/>
    <type id="highway.tertiary_link" priority="5" numLanes="1" speed="22.22" disallow="tram rail_urban rail rail_electric ship" oneway="1"/>
    <type id="highway.track" priority="1" numLanes="1" speed="5.56" disallow="tram rail_urban rail rail_electric ship" oneway="1"/>
    <type id="highway.trunk" priority="11" numLanes="2" speed="27.78" disallow="pedestrian bicycle tram rail_urban rail rail_electric ship" oneway="1"/>
    <type id="highway.trunk_link" priority="10" numLanes="1" speed="22.22" disallow="pedestrian bicycle tram rail_urban rail rail_electric ship" oneway="1"/>
    <type id="highway.unclassified" priority="5" numLanes="1" speed="13.89" disallow="tram rail_urban rail rail_electric ship" oneway="1"/>
    <type id="highway.unsurfaced" priority="1" numLanes="1" speed="8.33" disallow="tram rail_urban rail rail_electric ship" oneway="1"/>
    <type id="railway.light_rail" priority="15" numLanes="1" speed="27.78" allow="rail_urban" oneway="1"/>
    <type id="railway.preserved" priority="15" numLanes="1" speed="27.78" allow="rail" oneway="1"/>
    <type id="railway.rail" priority="15" numLanes="1" speed="83.33" allow="rail rail_electric" oneway="1"/>
    <type id="railway.subway" priority="15" numLanes="1" speed="27.78" allow="rail_urban" oneway="1"/>
    <type id="railway.tram" priority="15" numLanes="1" speed="13.89" allow="tram" oneway="1"/>

    <edge id=":10_0" function="internal">
        <lane id=":10_0_0" index="0" allow="private emergency authority army vip passenger hov taxi bus coach delivery truck trailer motorcycle evehicle custom1 custom2" speed="31.50" length="15.19" shape="1572.58,11985.19 1570.09,11987.51 1568.06,11989.99 1565.99,11993.07 1563.40,11997.19"/>
    </edge>
    <edge id=":10_1" function="internal">
        <lane id=":10_1_0" index="0" allow="private emergency authority vip passenger hov taxi bus coach delivery truck trailer motorcycle evehicle custom1 custom2" speed="31.50" length="15.93" shape="1570.04,11982.82 1567.09,11986.45 1565.09,11988.95 1563.23,11991.56 1560.69,11995.48"/>
        <lane id=":10_1_1" index="1" allow="private emergency authority vip passenger hov taxi bus coach delivery truck trailer motorcycle evehicle custom1 custom2" speed="31.50" length="15.93" shape="1567.43,11980.96 1564.44,11984.63 1562.43,11987.17 1560.55,11989.81 1557.99,11993.78"/>
        <lane id=":10_1_2" index="2" allow="private emergency authority vip passenger hov taxi bus coach delivery truck trailer motorcycle evehicle custom1 custom2" speed="31.50" length="15.93" shape="1564.82,11979.11 1561.80,11982.82 1559.76,11985.38 1557.87,11988.05 1555.28,11992.07"/>
    </edge>
    <edge id=":11_0" function="internal">
        <lane id=":11_0_0" index="0" allow="private emergency authority army vip passenger hov taxi bus coach delivery truck trailer motorcycle evehicle custom1 custom2" speed="31.50" length="0.59" shape="1514.26,12075.10 1514.09,12075.36 1513.98,12075.54 1513.85,12075.71 1513.67,12075.95"/>
        <lane id=":11_0_1" index="1" allow="private emergency authority army vip passenger hov taxi bus coach delivery truck trailer motorcycle evehicle custom1 custom2" speed="31.50" length="0.59" shape="1511.55,12073.39 1511.43,12073.58 1511.35,12073.70 1511.26,12073.83 1511.13,12074.00"/>
        <lane id=":11_0_2" index="2" allow="private emergency authority army vip passenger hov taxi bus coach delivery truck trailer motorcycle evehicle custom1 custom2" speed="31.50" length="0.59" shape="1508.84,12071.69 1508.77,12071.80 1508.72,12071.87 1508.67,12071.95 1508.59,12072.05"/>
        <lane id=":11_0_3" index="3" allow="private emergency authority army vip passenger hov taxi bus coach delivery truck trailer motorcycle evehicle custom1 custom2" speed="31.50" length="0.59" shape="1506.14,12069.98 1506.11,12070.02 1506.10,12070.04 1506.08,12070.07 1506.05,12070.10"/>
    </edge>
    <edge id=":12_0" function="internal">
        <lane id=":12_0_0" index="0" allow="private emergency authority army vip passenger hov taxi bus coach delivery truck trailer motorcycle evehicle custom1 custom2" speed="29.25" length="8.20" shape="1382.41,12246.78 1380.51,12248.42 1378.70,12248.97 1376.89,12249.51 1375.00,12251.16"/>
        <lane id=":12_0_1" index="1" allow="private emergency authority army vip passenger hov taxi bus coach delivery truck trailer motorcycle evehicle custom1 custom2" speed="29.25" length="8.20" shape="1379.87,12244.83 1375.00,12251.16"/>
        <lane id=":12_0_2" index="2" allow="private emergency authority army vip passenger hov taxi bus coach delivery truck trailer motorcycle evehicle custom1 custom2" speed="29.25" length="8.20" shape="1377.33,12242.88 1372.45,12249.23"/>
        <lane id=":12_0_3" index="3" allow="private emergency authority army vip passenger hov taxi bus coach delivery truck trailer motorcycle evehicle custom1 custom2" speed="29.25" length="8.20" shape="1374.79,12240.93 1369.91,12247.29"/>
    </edge>
    <edge id=":2_0" function="internal">
        <lane id=":2_0_0" index="0" allow="private emergency authority army vip passenger hov taxi bus coach delivery truck trailer motorcycle evehicle custom1 custom2" speed="31.20" length="8.20" shape="2943.41,10112.82 2942.70,10115.24 2942.95,10117.13 2943.19,10119.01 2942.46,10121.42"/>
        <lane id=":2_0_1" index="1" allow="private emergency authority army vip passenger hov taxi bus coach delivery truck trailer motorcycle evehicle custom1 custom2" speed="31.20" length="8.20" shape="2943.41,10112.82 2939.65,10119.90"/>
        <lane id=":2_0_2" index="2" allow="private emergency authority army vip passenger hov taxi bus coach delivery truck trailer motorcycle evehicle custom1 custom2" speed="31.20" length="8.20" shape="2940.58,10111.32 2936.83,10118.37"/>
        <lane id=":2_0_3" index="3" allow="private emergency authority army vip passenger hov taxi bus coach delivery truck trailer motorcycle evehicle custom1 custom2" speed="31.20" length="8.20" shape="2937.76,10109.82 2934.02,10116.85"/>
    </edge>
    <edge id=":3_0" function="internal">
        <lane id=":3_0_0" index="0" allow="private emergency authority army vip passenger hov taxi bus coach delivery truck trailer motorcycle evehicle custom1 custom2" speed="27.80" length="29.54" shape="2920.98,10161.14 2916.23,10170.10 2912.51,10177.51 2909.78,10183.36 2907.98,10187.65"/>
    </edge>
    <edge id=":3_1" function="internal">
        <lane id=":3_1_0" index="0" allow="private emergency authority army vip passenger hov taxi bus coach delivery truck trailer motorcycle evehicle custom1 custom2" speed="30.90" length="29.93" shape="2918.16,10159.61 2904.92,10186.32"/>
        <lane id=":3_1_1" index="1" allow="private emergency authority army vip passenger hov taxi bus coach delivery truck trailer motorcycle evehicle custom1 custom2" speed="30.90" length="29.93" shape="2915.35,10158.09 2902.05,10184.90"/>
        <lane id=":3_1_2" index="2" allow="private emergency authority army vip passenger hov taxi bus coach delivery truck trailer motorcycle evehicle custom1 custom2" speed="30.90" length="29.93" shape="2912.53,10156.57 2899.18,10183.49"/>
    </edge>
    <edge id=":4_0" function="internal">
        <lane id=":4_0_0" index="0" allow="private emergency authority army vip passenger hov taxi bus coach delivery truck trailer motorcycle evehicle custom1 custom2" speed="31.50" length="15.16" shape="2642.96,10594.01 2640.63,10596.48 2638.64,10598.99 2636.46,10601.97 2633.56,10605.88"/>
    </edge>
    <edge id=":4_1" function="internal">
        <lane id=":4_1_0" index="0" allow="private emergency authority army vip passenger hov taxi bus coach delivery truck trailer motorcycle evehicle custom1 custom2" speed="31.45" length="15.19" shape="2640.30,10591.89 2631.01,10603.95"/>
        <lane id=":4_1_1" index="1" allow="private emergency authority army vip passenger hov taxi bus coach delivery truck trailer motorcycle evehicle custom1 custom2" speed="31.45" length="15.19" shape="2637.73,10589.98 2628.47,10602.01"/>
        <lane id=":4_1_2" index="2" allow="private emergency authority army vip passenger hov taxi bus coach delivery truck trailer motorcycle evehicle custom1 custom2" speed="31.45" length="15.19" shape="2635.16,10588.06 2625.92,10600.08"/>
    </edge>
    <edge id=":5_0" function="internal">
        <lane id=":5_0_0" index="0" allow="private emergency authority army vip passenger hov taxi bus coach delivery truck trailer motorcycle evehicle custom1 custom2" speed="31.50" length="0.10" shape="2515.76,10761.20 2515.76,10761.20"/>
        <lane id=":5_0_1" index="1" allow="private emergency authority army vip passenger hov taxi bus coach delivery truck trailer motorcycle evehicle custom1 custom2" speed="31.50" length="0.10" shape="2513.21,10759.27 2513.21,10759.27"/>
        <lane id=":5_0_2" index="2" allow="private emergency authority army vip passenger hov taxi bus coach delivery truck trailer motorcycle evehicle custom1 custom2" speed="31.50" length="0.10" shape="2510.67,10757.33 2510.67,10757.33"/>
        <lane id=":5_0_3" index="3" allow="private emergency authority army vip passenger hov taxi bus coach delivery truck trailer motorcycle evehicle custom1 custom2" speed="31.50" length="0.10" shape="2508.12,10755.40 2508.12,10755.40"/>
    </edge>
    <edge id=":6_0" function="internal">
        <lane id=":6_0_0" index="0" allow="private emergency authority army vip passenger hov taxi bus coach delivery truck trailer motorcycle evehicle custom1 custom2" speed="31.50" length="8.19" shape="2496.57,10786.51 2494.69,10788.16 2492.89,10788.72 2491.10,10789.29 2489.24,10790.95"/>
        <lane id=":6_0_1" index="1" allow="private emergency authority army vip passenger hov taxi bus coach delivery truck trailer motorcycle evehicle custom1 custom2" speed="31.50" length="8.19" shape="2494.02,10784.58 2489.24,10790.95"/>
        <lane id=":6_0_2" index="2" allow="private emergency authority army vip passenger hov taxi bus coach delivery truck trailer motorcycle evehicle custom1 custom2" speed="31.50" length="8.19" shape="2491.47,10782.65 2486.67,10789.05"/>
        <lane id=":6_0_3" index="3" allow="private emergency authority army vip passenger hov taxi bus coach delivery truck trailer motorcycle evehicle custom1 custom2" speed="31.50" length="8.19" shape="2488.92,10780.71 2484.10,10787.14"/>
    </edge>
    <edge id=":7_0" function="internal">
        <lane id=":7_0_0" index="0" allow="private emergency authority army vip passenger hov taxi bus coach delivery truck trailer motorcycle evehicle custom1 custom2" speed="31.50" length="8.17" shape="1799.15,11696.13 1798.00,11698.32 1797.89,11700.17 1797.79,11702.04 1796.68,11704.26"/>
        <lane id=":7_0_1" index="1" allow="private emergency authority army vip passenger hov taxi bus coach delivery truck trailer motorcycle evehicle custom1 custom2" speed="31.50" length="8.17" shape="1799.15,11696.13 1794.16,11702.30"/>
        <lane id=":7_0_2" index="2" allow="private emergency authority army vip passenger hov taxi bus coach delivery truck trailer motorcycle evehicle custom1 custom2" speed="31.50" length="8.17" shape="1796.66,11694.11 1791.63,11700.33"/>
        <lane id=":7_0_3" index="3" allow="private emergency authority army vip passenger hov taxi bus coach delivery truck trailer motorcycle evehicle custom1 custom2" speed="31.50" length="8.17" shape="1794.17,11692.10 1789.10,11698.37"/>
    </edge>
    <edge id=":8_0" function="internal">
        <lane id=":8_0_0" index="0" allow="private emergency authority army vip passenger hov taxi bus coach delivery truck trailer motorcycle evehicle custom1 custom2" speed="31.50" length="0.28" shape="1760.70,11750.54 1760.58,11750.70"/>
        <lane id=":8_0_1" index="1" allow="private emergency authority army vip passenger hov taxi bus coach delivery truck trailer motorcycle evehicle custom1 custom2" speed="31.50" length="0.28" shape="1758.17,11748.58 1758.01,11748.78"/>
        <lane id=":8_0_2" index="2" allow="private emergency authority army vip passenger hov taxi bus coach delivery truck trailer motorcycle evehicle custom1 custom2" speed="31.50" length="0.28" shape="1755.64,11746.62 1755.45,11746.86"/>
        <lane id=":8_0_3" index="3" allow="private emergency authority army vip passenger hov taxi bus coach delivery truck trailer motorcycle evehicle custom1 custom2" speed="31.50" length="0.28" shape="1753.12,11744.65 1752.89,11744.94"/>
    </edge>
    <edge id=":9_0" function="internal">
        <lane id=":9_0_0" index="0" allow="private emergency authority army vip passenger hov taxi bus coach delivery truck trailer motorcycle evehicle custom1 custom2" speed="21.66" length="13.21" shape="1749.88,11764.97 1747.26,11768.19 1745.22,11770.54 1743.71,11772.83 1742.66,11775.85"/>
    </edge>
    <edge id=":9_1" function="internal">
        <lane id=":9_1_0" index="0" allow="private emergency authority vip passenger hov taxi bus coach delivery truck trailer motorcycle evehicle custom1 custom2" speed="31.50" length="12.38" shape="1747.32,11763.05 1739.56,11772.84"/>
        <lane id=":9_1_1" index="1" allow="private emergency authority vip passenger hov taxi bus coach delivery truck trailer motorcycle evehicle custom1 custom2" speed="31.50" length="12.38" shape="1744.76,11761.13 1737.07,11770.83"/>
        <lane id=":9_1_2" index="2" allow="private emergency authority vip passenger hov taxi bus coach delivery truck trailer motorcycle evehicle custom1 custom2" speed="31.50" length="12.38" shape="1742.20,11759.21 1734.58,11768.82"/>
    </edge>

    <edge id="10_1to10" from="10_1" to="10" priority="12" type="highway.motorway_link" spreadType="center" shape="1849.38,11832.71 1839.51,11842.30 1800.95,11886.59 1790.85,11892.59 1780.05,11897.26 1768.86,11900.60 1702.58,11914.36 1687.61,11918.52 1665.72,11926.43 1644.53,11936.44 1630.97,11944.13 1608.24,11957.61 1587.45,11972.92 1560.16,11995.45">
        <lane id="10_1to10_0" index="0" allow="private emergency authority army vip passenger hov taxi bus coach delivery truck trailer motorcycle evehicle custom1 custom2" speed="31.50" length="324.73" shape="1849.38,11832.71 1839.51,11842.30 1800.95,11886.59 1790.85,11892.59 1780.05,11897.26 1768.86,11900.60 1702.58,11914.36 1687.61,11918.52 1665.72,11926.43 1644.53,11936.44 1630.97,11944.13 1608.24,11957.61 1587.45,11972.92 1572.58,11985.19"/>
    </edge>
    <edge id="10to11" from="10" to="11" priority="13" type="highway.motorway" spreadType="center" shape="1559.34,11994.63 1510.04,12072.79">
        <lane id="10to11_0" index="0" allow="private emergency authority army vip passenger hov taxi bus coach delivery truck trailer motorcycle evehicle custom1 custom2" speed="31.50" length="92.11" acceleration="1" shape="1563.40,11997.19 1514.26,12075.10"/>
        <lane id="10to11_1" index="1" allow="private emergency authority army vip passenger hov taxi bus coach delivery truck trailer motorcycle evehicle custom1 custom2" speed="31.50" length="92.11" shape="1560.69,11995.48 1511.55,12073.39"/>
        <lane id="10to11_2" index="2" allow="private emergency authority army vip passenger hov taxi bus coach delivery truck trailer motorcycle evehicle custom1 custom2" speed="31.50" length="92.11" shape="1557.99,11993.78 1508.84,12071.69"/>
        <lane id="10to11_3" index="3" allow="private emergency authority army vip passenger hov taxi bus coach delivery truck trailer motorcycle evehicle custom1 custom2" speed="31.50" length="92.11" shape="1555.28,11992.07 1506.14,12069.98"/>
    </edge>
    <edge id="11to12" from="11" to="12" priority="13" type="highway.motorway" spreadType="center">
        <lane id="11to12_0" index="0" allow="private emergency authority army vip passenger hov taxi bus coach delivery truck trailer motorcycle evehicle custom1 custom2" speed="31.50" length="215.44" shape="1513.67,12075.95 1382.41,12246.78"/>
        <lane id="11to12_1" index="1" allow="private emergency authority army vip passenger hov taxi bus coach delivery truck trailer motorcycle evehicle custom1 custom2" speed="31.50" length="215.44" shape="1511.13,12074.00 1379.87,12244.83"/>
        <lane id="11to12_2" index="2" allow="private emergency authority army vip passenger hov taxi bus coach delivery truck trailer motorcycle evehicle custom1 custom2" speed="31.50" length="215.44" shape="1508.59,12072.05 1377.33,12242.88"/>
        <lane id="11to12_3" index="3" allow="private emergency authority army vip passenger hov taxi bus coach delivery truck trailer motorcycle evehicle custom1 custom2" speed="31.50" length="215.44" shape="1506.05,12070.10 1374.79,12240.93"/>
    </edge>
    <edge id="12to13" from="12" to="13" priority="13" type="highway.motorway" spreadType="center" shape="1374.87,12246.05 1194.36,12483.65 934.90,12830.71 884.47,12903.92 756.07,13096.80 654.50,13261.38 573.58,13398.40">
        <lane id="12to13_0" index="0" allow="private emergency authority army vip passenger hov taxi bus coach delivery truck trailer motorcycle evehicle custom1 custom2" speed="27.00" length="1400.86" shape="1375.00,12251.16 1196.92,12485.58 937.50,12832.58 887.12,12905.71 758.76,13098.53 657.24,13263.03 576.34,13400.03"/>
        <lane id="12to13_1" index="1" allow="private emergency authority army vip passenger hov taxi bus coach delivery truck trailer motorcycle evehicle custom1 custom2" speed="27.00" length="1400.86" shape="1372.45,12249.23 1194.36,12483.65 934.90,12830.71 884.47,12903.92 756.07,13096.80 654.50,13261.38 573.58,13398.40"/>
        <lane id="12to13_2" index="2" allow="private emergency authority army vip passenger hov taxi bus coach delivery truck trailer motorcycle evehicle custom1 custom2" speed="27.00" length="1400.86" shape="1369.91,12247.29 1191.80,12481.72 932.30,12828.84 881.82,12902.13 753.38,13095.07 651.76,13259.73 570.82,13396.77"/>
    </edge>
    <edge id="1to2" from="1" to="2" priority="13" type="highway.motorway" spreadType="center" shape="9042.60,534.32 8885.15,959.54 8757.86,1297.66 8729.81,1364.80 8680.14,1474.08 8622.39,1589.43 8535.18,1748.12 8400.00,1960.65 8181.81,2290.26 7482.59,3343.48 7418.17,3433.09 7347.19,3524.67 7272.61,3614.62 7136.96,3764.33 6980.42,3917.06 6744.57,4127.21 6417.45,4415.32 6204.06,4604.06 6114.66,4684.88 6017.85,4779.64 5893.39,4913.06 5775.68,5052.28 5642.98,5227.36 5554.15,5348.41 4904.39,6224.58 4790.09,6379.62 4720.24,6482.29 4654.96,6585.34 4594.55,6690.69 4491.51,6887.91 4423.75,7028.24 4338.23,7206.78 4031.31,7844.74 3722.39,8490.05 3716.95,8501.38 3438.74,9081.22 3303.75,9360.54 3107.24,9769.93 2982.96,10027.30 2942.88,10106.99 2938.53,10115.20">
        <lane id="1to2_0" index="0" allow="private emergency authority army vip passenger hov taxi bus coach delivery truck trailer motorcycle evehicle custom1 custom2" speed="32.00" length="11470.71" shape="9045.60,535.43 8888.15,960.66 8760.83,1298.84 8732.74,1366.08 8683.03,1475.46 8625.22,1590.92 8537.94,1749.75 8402.68,1962.39 8184.48,2292.03 7485.22,3345.30 7420.73,3435.00 7349.69,3526.67 7275.03,3616.72 7139.27,3766.55 6982.60,3919.40 6746.69,4129.61 6419.57,4417.72 6206.19,4606.45 6116.85,4687.21 6020.14,4781.88 5895.78,4915.19 5778.18,5054.28 5645.55,5229.27 5556.73,5350.31 4906.96,6226.48 4792.70,6381.47 4722.92,6484.05 4657.70,6586.99 4597.36,6692.23 4494.37,6889.35 4426.63,7029.63 4341.11,7208.16 4034.19,7846.12 3725.28,8491.43 3719.83,8502.76 3441.62,9082.61 3306.63,9361.93 3110.12,9771.32 2985.83,10028.71 2945.72,10108.46 2943.41,10112.82"/>
        <lane id="1to2_1" index="1" allow="private emergency authority army vip passenger hov taxi bus coach delivery truck trailer motorcycle evehicle custom1 custom2" speed="32.00" length="11470.71" shape="9042.60,534.32 8885.15,959.54 8757.86,1297.66 8729.81,1364.80 8680.14,1474.08 8622.39,1589.43 8535.18,1748.12 8400.00,1960.65 8181.81,2290.26 7482.59,3343.48 7418.17,3433.09 7347.19,3524.67 7272.61,3614.62 7136.96,3764.33 6980.42,3917.06 6744.57,4127.21 6417.45,4415.32 6204.06,4604.06 6114.66,4684.88 6017.85,4779.64 5893.39,4913.06 5775.68,5052.28 5642.98,5227.36 5554.15,5348.41 4904.39,6224.58 4790.09,6379.62 4720.24,6482.29 4654.96,6585.34 4594.55,6690.69 4491.51,6887.91 4423.75,7028.24 4338.23,7206.78 4031.31,7844.74 3722.39,8490.05 3716.95,8501.38 3438.74,9081.22 3303.75,9360.54 3107.24,9769.93 2982.96,10027.30 2942.88,10106.99 2940.58,10111.32"/>
        <lane id="1to2_2" index="2" allow="private emergency authority army vip passenger hov taxi bus coach delivery truck trailer motorcycle evehicle custom1 custom2" speed="32.00" length="11470.71" shape="9039.60,533.21 8882.15,958.42 8754.89,1296.48 8726.88,1363.52 8677.25,1472.70 8619.56,1587.94 8532.42,1746.49 8397.32,1958.91 8179.14,2288.49 7479.96,3341.66 7415.61,3431.18 7344.69,3522.67 7270.19,3612.52 7134.65,3762.11 6978.24,3914.72 6742.45,4124.81 6415.33,4412.92 6201.93,4601.67 6112.47,4682.55 6015.56,4777.40 5891.00,4910.93 5773.18,5050.28 5640.41,5225.45 5551.57,5346.51 4901.82,6222.68 4787.48,6377.77 4717.56,6480.53 4652.22,6583.69 4591.74,6689.15 4488.65,6886.47 4420.87,7026.85 4335.35,7205.40 4028.43,7843.36 3719.50,8488.67 3714.07,8500.00 3435.86,9079.83 3300.87,9359.15 3104.36,9768.54 2980.09,10025.89 2940.04,10105.52 2937.76,10109.82"/>
    </edge>
    <edge id="2to3" from="2" to="3" priority="13" type="highway.motorway" spreadType="center" length="79.10">
        <lane id="2to3_0" index="0" allow="private emergency authority army vip passenger hov taxi bus coach delivery truck trailer motorcycle evehicle custom1 custom2" speed="30.40" length="79.10" shape="2942.46,10121.42 2920.98,10161.14"/>
        <lane id="2to3_1" index="1" allow="private emergency authority army vip passenger hov taxi bus coach delivery truck trailer motorcycle evehicle custom1 custom2" speed="30.40" length="79.10" shape="2939.65,10119.90 2918.16,10159.61"/>
        <lane id="2to3_2" index="2" allow="private emergency authority army vip passenger hov taxi bus coach delivery truck trailer motorcycle evehicle custom1 custom2" speed="30.40" length="79.10" shape="2936.83,10118.37 2915.35,10158.09"/>
        <lane id="2to3_3" index="3" allow="private emergency authority army vip passenger hov taxi bus coach delivery truck trailer motorcycle evehicle custom1 custom2" speed="30.40" length="79.10" shape="2934.02,10116.85 2912.53,10156.57"/>
    </edge>
    <edge id="3to3_1" from="3" to="3_1" priority="12" type="highway.motorway_link" spreadType="center" shape="2924.07,10145.33 2886.36,10244.55 2877.03,10269.73">
        <lane id="3to3_1_0" index="0" allow="private emergency authority army vip passenger hov taxi bus coach delivery truck trailer motorcycle evehicle custom1 custom2" speed="25.20" length="87.72" shape="2907.98,10187.65 2886.36,10244.55 2877.03,10269.73"/>
    </edge>
    <edge id="3to4" from="3" to="4" priority="13" type="highway.motorway" shape="2917.90,10141.96 2874.24,10230.40 2800.33,10354.95 2745.73,10440.16 2673.29,10536.96 2627.47,10595.26 2624.11,10599.77">
        <lane id="3to4_0" index="0" allow="private emergency authority army vip passenger hov taxi bus coach delivery truck trailer motorcycle evehicle custom1 custom2" speed="31.40" length="484.70" shape="2904.92,10186.32 2881.28,10234.22 2807.14,10359.15 2752.31,10444.72 2679.64,10541.83 2640.30,10591.89"/>
        <lane id="3to4_1" index="1" allow="private emergency authority army vip passenger hov taxi bus coach delivery truck trailer motorcycle evehicle custom1 custom2" speed="31.40" length="484.70" shape="2902.05,10184.90 2878.46,10232.69 2804.42,10357.47 2749.68,10442.90 2677.10,10539.88 2637.73,10589.98"/>
        <lane id="3to4_2" index="2" allow="private emergency authority army vip passenger hov taxi bus coach delivery truck trailer motorcycle evehicle custom1 custom2" speed="31.40" length="484.70" shape="2899.18,10183.49 2875.65,10231.16 2801.69,10355.79 2747.05,10441.07 2674.56,10537.93 2635.16,10588.06"/>
    </edge>
    <edge id="4to4_1" from="4_1" to="4" priority="12" type="highway.motorway_link" spreadType="center" shape="2720.58,10525.68 2660.49,10576.94 2637.28,10599.54 2629.09,10603.76">
        <lane id="4to4_1_0" index="0" allow="private emergency authority army vip passenger hov taxi bus coach delivery truck trailer motorcycle evehicle custom1 custom2" speed="31.50" length="103.45" shape="2720.58,10525.68 2660.49,10576.94 2642.96,10594.01"/>
    </edge>
    <edge id="4to5" from="4" to="5" priority="13" type="highway.motorway" spreadType="center" shape="2629.74,10602.98 2511.94,10758.30">
        <lane id="4to5_0" index="0" allow="private emergency authority army vip passenger hov taxi bus coach delivery truck trailer motorcycle evehicle custom1 custom2" speed="31.50" length="194.94" acceleration="1" shape="2633.56,10605.88 2515.76,10761.20"/>
        <lane id="4to5_1" index="1" allow="private emergency authority army vip passenger hov taxi bus coach delivery truck trailer motorcycle evehicle custom1 custom2" speed="31.50" length="194.94" shape="2631.01,10603.95 2513.21,10759.27"/>
        <lane id="4to5_2" index="2" allow="private emergency authority army vip passenger hov taxi bus coach delivery truck trailer motorcycle evehicle custom1 custom2" speed="31.50" length="194.94" shape="2628.47,10602.01 2510.67,10757.33"/>
        <lane id="4to5_3" index="3" allow="private emergency authority army vip passenger hov taxi bus coach delivery truck trailer motorcycle evehicle custom1 custom2" speed="31.50" length="194.94" shape="2625.92,10600.08 2508.12,10755.40"/>
    </edge>
    <edge id="5to6" from="5" to="6" priority="13" type="highway.motorway" spreadType="center" shape="2511.94,10758.30 2490.32,10786.81">